62
conf-1-90.log	Energy: -4984614.1217898
C          3.1468240000       -1.5126450000       -0.9975090000
C          3.9576920000       -2.2718120000        0.0541510000
C          3.0925180000       -2.2361130000        1.3290310000
C          1.6564590000       -2.3919760000        0.7474900000
C          1.7218760000       -2.0291580000       -0.7587580000
H          3.4864460000       -1.7148800000       -2.0152740000
H          0.9794460000       -1.7188800000        1.2748040000
H          3.2043080000       -0.4363970000       -0.8203230000
H          3.9583380000       -3.3315950000       -0.2371420000
H          3.3587940000       -3.0724690000        1.9857630000
H          1.5362750000       -2.9126460000       -1.3733510000
C         -2.0536880000       -2.6034890000       -1.3901750000
C         -1.5532940000       -3.2132660000       -0.0772730000
C         -2.8513390000       -3.5957100000        0.6347190000
C         -3.8364350000       -2.4579250000        0.2588340000
C         -3.1544160000       -1.6655300000       -0.8748380000
H         -2.7082170000       -3.7055790000        1.7125440000
H         -4.7869880000       -2.8716590000       -0.0784160000
H         -2.6776920000       -0.7671150000       -0.4711460000
H         -2.4941300000       -3.3835470000       -2.0253040000
H         -1.0605450000       -2.4160860000        0.4872500000
H         -3.2254360000       -4.5489920000        0.2500330000
S         -0.3160710000       -4.5335560000       -0.3290290000
S          1.0769980000       -4.1107300000        1.1364980000
S         -0.8088630000       -1.8485690000       -2.5017090000
S          0.4503930000       -0.7883140000       -1.2651630000
C          4.6070550000        3.0223170000        0.8430250000
C          4.8710500000        2.6333680000       -0.6229820000
C          5.7631670000        1.3389570000       -0.5598040000
C          5.9218470000        1.0588700000        0.9397870000
C          4.7112660000        1.7065620000        1.6291420000
H          3.6528240000        3.5393230000        0.9692440000
H          6.7864070000        1.6375530000        1.2923810000
H          4.9048480000        1.8694510000        2.6908360000
H          5.3976430000        3.6935120000        1.1940570000
H          3.9350820000        2.3958830000       -1.1363420000
S          3.1678270000       -0.8532130000        2.5465910000
S          3.0533650000        0.9188560000        1.4960980000
S          5.7639680000       -1.9481840000        0.0082510000
S          6.3840150000       -0.6348420000        1.4558370000
S         -4.1986120000       -1.4429720000        1.7584780000
S         -4.4659580000        0.4831530000        1.0975300000
S         -4.2458300000       -1.0886770000       -2.2481570000
S          7.3452960000        1.4892300000       -1.4652650000
S          7.5550350000        3.5150340000       -1.0429800000
S          5.6122470000        3.9703340000       -1.6282000000
C         -6.2498570000        1.6172710000       -1.4616650000
C         -6.6368590000        0.3204510000       -0.7592650000
C         -6.2659490000        0.5818270000        0.7143690000
C         -6.8456810000        2.0183680000        0.9061130000
C         -6.8401040000        2.6823770000       -0.5297330000
H         -6.6402180000        1.6865810000       -2.4782530000
H         -7.8868790000        1.9011270000        1.2225090000
H         -5.1584360000        1.7010560000       -1.5055390000
H         -7.7319090000        0.2191880000       -0.7907780000
H         -6.7533870000       -0.1207160000        1.3928300000
H         -7.8737400000        2.8991930000       -0.8146490000
S         -6.1766930000       -1.2525390000       -1.5657500000
S         -6.0308850000        4.3240820000       -0.5767510000
S         -4.6800640000        3.8889420000        0.9402540000
S         -6.1379430000        3.0951120000        2.1949840000
H          5.2527560000        0.5108850000       -1.0580080000
