63
conf-2-93.log	Energy: -5234458.0918335
C         -0.4215430000       -3.2924130000        0.3337260000
C         -1.7935470000       -2.7129770000       -0.0224960000
C         -2.5037770000       -2.7050760000        1.3437740000
C         -1.3820840000       -2.3209980000        2.3638670000
C         -0.0609980000       -2.4737350000        1.5732020000
H          0.3000150000       -3.1766980000       -0.4778200000
H         -1.4118330000       -3.0246430000        3.2020750000
H         -0.5018180000       -4.3606650000        0.5678460000
H         -1.6616140000       -1.6981670000       -0.4081430000
H         -2.7957180000       -3.7370020000        1.5622860000
H          0.2648230000       -1.4909490000        1.2264050000
C          0.4791340000        1.8078350000        0.1905210000
C          0.2761290000        1.2282690000        1.6235900000
C          0.6110530000        2.3798750000        2.6123040000
C          0.5179710000        3.6097700000        1.7172490000
C          1.2246240000        3.1179240000        0.4501100000
H          1.6316310000        2.2501980000        2.9878440000
H         -0.5334690000        3.8153830000        1.4842450000
H          2.2644380000        2.8957540000        0.7126040000
H         -0.4859340000        2.0445240000       -0.2775110000
H          0.9407550000        0.3813190000        1.7992780000
H         -0.0705800000        2.4125710000        3.4631500000
S         -1.4668000000        0.6607720000        1.7067380000
S         -1.5110800000       -0.7154150000        3.2426580000
S          1.2166170000        0.7039570000       -1.0586170000
S          1.2977540000       -3.1494600000        2.5984220000
C         -4.2437430000       -0.9848920000       -2.0931350000
C         -3.5131120000        0.2211510000       -1.5042730000
C         -4.6883660000        1.1787190000       -1.3077910000
C         -5.7058310000        0.3010240000       -0.5758340000
C         -5.4497760000       -1.1459400000       -1.1161170000
H         -5.0719240000        1.4864940000       -2.2863380000
H         -6.7337350000        0.6209890000       -0.7529810000
H         -5.5226260000        0.3394470000        0.5007910000
H         -6.3115070000       -1.5129010000       -1.6819390000
H         -4.6732720000       -0.6606350000       -3.0518160000
H         -3.1139230000       -0.0300560000       -0.5179810000
S         -4.0185470000       -1.6930060000        1.5988490000
S         -5.4132890000       -2.3893930000        0.2392960000
S         -2.6872970000       -3.6976360000       -1.2729140000
S         -3.1976560000       -2.3419840000       -2.7401750000
S          1.2653150000        5.1885220000        2.2146770000
S          3.1055090000        0.3343570000       -0.2484220000
S          1.2937760000        4.3899720000       -0.8615750000
S         -4.0545850000        2.6758650000       -0.4932200000
S         -2.7512510000        3.0144470000       -2.0836490000
S         -2.1578610000        0.9857810000       -2.4532720000
C          5.1396490000       -1.9273480000        0.9672270000
C          3.6299680000       -2.1707010000        0.9615090000
C          3.1789460000       -1.5021080000       -0.3513130000
C          4.2578630000       -2.0426150000       -1.3430050000
C          5.5260490000       -2.3629000000       -0.4530760000
H          5.6626730000       -2.4992610000        1.7350590000
H          3.8812510000       -2.9835150000       -1.7561180000
H          5.3621610000       -0.8640760000        1.1179060000
H          3.4546100000       -3.2480080000        0.8584870000
H          2.1829000000       -1.8269460000       -0.6580380000
H          5.6969830000       -3.4434720000       -0.4701920000
S          2.7671880000       -1.7073200000        2.5023030000
S          7.0819360000       -1.6690750000       -1.1155370000
S          6.1741920000        0.0228240000       -1.9069470000
S          4.6510300000       -1.0586500000       -2.8242520000
S          0.7034280000        6.0137640000        0.3869290000
