63
conf-2-2.log	Energy: -5234461.2432739
C         -0.7884940000        4.2240020000       -2.1435990000
C         -1.2778460000        3.7782670000       -0.7515430000
C         -0.2667710000        2.6892180000       -0.3092310000
C          0.7210200000        2.4593490000       -1.4825250000
C          0.0078220000        3.0402790000       -2.7064950000
H         -0.0988430000        5.0674470000       -2.0165880000
H          0.9131070000        1.3928820000       -1.5836390000
H         -1.5917410000        4.5579400000       -2.8046790000
H         -1.3247280000        4.6071860000       -0.0439560000
H         -0.7955670000        1.7415030000       -0.1993060000
H          0.7229590000        3.3616850000       -3.4666080000
C          3.6889540000       -0.7848360000        0.0522260000
C          3.6120280000        0.7713630000        0.1913450000
C          4.8654490000        1.1925280000        0.9968860000
C          5.8398970000        0.0722050000        0.6466410000
C          4.9509330000       -1.1610070000        0.8371590000
H          4.6457490000        1.1842800000        2.0695720000
H          6.1035490000        0.1480750000       -0.4138960000
H          4.7091640000       -1.2542390000        1.9025500000
H          3.7899600000       -1.0751210000       -0.9988600000
H          2.6914130000        1.0858620000        0.6871640000
H          5.2137870000        2.1888610000        0.7223810000
S          3.5763170000        1.5026000000       -1.5038280000
S          2.4127890000        3.1873080000       -1.2748920000
S          2.2704090000       -1.7044030000        0.7733790000
S         -1.0225690000        1.8027320000       -3.6467620000
C         -2.9229950000        1.1182480000        1.3654900000
C         -3.9202170000        0.2935870000        2.1869540000
C         -3.0181930000       -0.5910020000        3.0505030000
C         -2.0351090000        0.4332580000        3.6031180000
C         -1.6463210000        1.1760060000        2.3032230000
H         -2.4845670000       -1.3044130000        2.4122920000
H         -1.1639680000       -0.0080360000        4.0888640000
H         -2.5304260000        1.1025310000        4.3158810000
H         -0.8567040000        0.5995330000        1.8149500000
H         -2.6725460000        0.5963780000        0.4372880000
H         -4.4633140000        0.9623510000        2.8647220000
S          0.6161970000        2.9471810000        1.2754900000
S         -0.9380220000        2.8241150000        2.6439420000
S         -2.9918300000        3.1216960000       -0.9741790000
S         -3.7007120000        2.7139650000        0.9078280000
S          7.4203950000       -0.0950110000        1.5485130000
S          0.6173600000       -0.8172360000       -0.0747610000
S          5.9003000000       -2.6410740000        0.3735390000
S         -4.0858480000       -1.5593790000        4.1567610000
S         -5.0085080000       -2.4259210000        2.5024490000
S         -5.2051500000       -0.6671130000        1.3045930000
C         -0.7908000000       -2.1548830000       -3.7089560000
C         -0.2279210000       -1.0377940000       -2.7979230000
C          0.2978850000       -1.8194800000       -1.5745520000
C         -0.6611400000       -2.9989480000       -1.3783430000
C         -0.9737030000       -3.4270110000       -2.8355320000
H         -0.0924540000       -2.3658320000       -4.5229090000
H         -0.1827250000       -3.8048970000       -0.8192950000
H         -1.7365030000       -1.8469640000       -4.1572350000
H          0.5897990000       -0.4922800000       -3.2724060000
H          1.2694900000       -2.2359180000       -1.8643060000
H         -0.2535600000       -4.1988110000       -3.1244860000
S         -1.4939860000        0.2476770000       -2.3728880000
S         -2.5942580000       -4.2555860000       -2.9603020000
S         -3.5660380000       -2.7140550000       -1.9737050000
S         -2.1874080000       -2.6147970000       -0.3991690000
S          7.2850500000       -2.2058310000        1.8629550000
