62
conf-1-1.log	Energy: -4984623.1302091
C         -5.1460000000       -0.3741210000        2.2522280000
C         -4.8931650000        0.8970920000        1.4163790000
C         -5.0210820000        0.3293950000       -0.0017770000
C         -4.1925180000       -0.9598370000        0.0624550000
C         -4.5645620000       -1.5602750000        1.4291930000
H         -6.2269680000       -0.5031350000        2.3644530000
H         -3.1381810000       -0.6609540000        0.0762220000
H         -4.7202950000       -0.3164550000        3.2561850000
H         -5.6293340000        1.6789990000        1.6085060000
H         -6.0812910000        0.0619230000       -0.1197750000
H         -5.3214860000       -2.3379270000        1.2961270000
C         -0.8797040000       -2.9300740000        0.3546740000
C         -1.5363050000       -2.7986220000       -1.0312820000
C         -0.5189630000       -3.4610550000       -1.9668240000
C          0.8599560000       -3.1085250000       -1.3715650000
C          0.5960800000       -2.6142470000        0.0615440000
H         -0.6478360000       -3.1342510000       -3.0016490000
H          1.5128880000       -3.9806340000       -1.3706670000
H          0.7340270000       -1.5296510000        0.1039130000
H         -0.9974710000       -3.9516330000        0.7303230000
H         -1.6473590000       -1.7418180000       -1.2956110000
H         -0.6443240000       -4.5486100000       -1.9492720000
S         -3.1934730000       -3.5779090000       -1.1092980000
S         -4.4482980000       -1.9699150000       -1.4350550000
S         -1.4181000000       -1.7626130000        1.6610820000
S         -3.2225460000       -2.4734900000        2.3337520000
C         -0.8059030000        3.1289870000       -2.2400510000
C          0.1832190000        2.4974410000       -1.2412340000
C         -0.5122660000        2.6171910000        0.1671370000
C         -1.8137130000        3.3866590000       -0.1238990000
C         -2.1820230000        3.0248120000       -1.5660480000
H         -0.7619590000        2.6551230000       -3.2229830000
H         -1.5563290000        4.4555790000       -0.1594410000
H         -2.9071010000        3.7238070000       -1.9865860000
H         -0.5683880000        4.1896510000       -2.3698070000
H          0.3593860000        1.4428430000       -1.4712050000
S         -4.7967810000        1.3820730000       -1.4753810000
S         -2.7866020000        1.3276680000       -1.9167870000
S         -3.2525500000        1.5309530000        1.9537860000
S         -3.0720480000        3.4362210000        1.1951420000
S          1.7103260000       -1.8332830000       -2.4146330000
S          2.7490400000       -0.6292890000       -1.1104790000
S          1.7181830000       -3.3061220000        1.3542020000
S          0.5529990000        3.3862920000        1.4347680000
S          1.3957580000        4.7309610000        0.0923330000
S          1.8514590000        3.2536440000       -1.3004400000
C          4.6903820000       -1.5746190000        1.4759580000
C          4.5364160000       -2.4426960000        0.2347820000
C          4.4017140000       -1.4249950000       -0.9187950000
C          5.5080140000       -0.3868350000       -0.5323690000
C          5.7347230000       -0.5504810000        1.0253640000
H          5.0061060000       -2.1379590000        2.3554610000
H          6.4247970000       -0.6869520000       -1.0483450000
H          3.7388000000       -1.0819570000        1.7049310000
H          5.4851140000       -2.9720410000        0.0614580000
H          4.6236150000       -1.8778780000       -1.8869840000
H          6.7416550000       -0.9460000000        1.1893960000
S          3.4164530000       -3.8808300000        0.3490960000
S          5.7278740000        1.0322730000        1.9395560000
S          4.2921170000        1.8984250000        0.7113990000
S          5.2946230000        1.3556410000       -1.0338030000
H         -0.7388270000        1.6175700000        0.5522760000
