63
conf-2-0.log	Energy: -5234462.0895458
C          0.6982690000        4.4089110000        1.7460460000
C          1.2452670000        3.8206520000        0.4310830000
C          0.2491180000        2.6923190000        0.0600120000
C         -0.7816520000        2.5735620000        1.2132630000
C         -0.1257440000        3.2913170000        2.3968820000
H          0.0177070000        5.2334200000        1.5006500000
H         -0.9636280000        1.5207410000        1.4181390000
H          1.4736030000        4.8117380000        2.4019730000
H          1.3260830000        4.5718550000       -0.3558020000
H          0.7818920000        1.7402460000        0.0577720000
H         -0.8762970000        3.6930950000        3.0807850000
C         -3.6474110000       -0.8551130000       -0.1621210000
C         -3.5806500000        0.6839670000       -0.4334690000
C         -4.8088080000        1.0185990000       -1.3172570000
C         -5.7773790000       -0.0867140000       -0.9190700000
C         -4.8660460000       -1.3196720000       -0.9739730000
H         -4.5385550000        0.9363090000       -2.3756320000
H         -6.1120790000        0.0741760000        0.1125580000
H         -4.5656080000       -1.4580750000       -2.0179910000
H         -3.8065070000       -1.0614410000        0.9006690000
H         -2.6465710000        0.9699640000       -0.9211490000
H         -5.1887200000        2.0237040000       -1.1318310000
S         -3.6192580000        1.5570790000        1.1924540000
S         -2.4762560000        3.2409050000        0.8677630000
S         -2.1810610000       -1.8082060000       -0.7239120000
S          0.8530990000        2.1702790000        3.5206270000
C          2.9671280000        0.9873480000       -1.3741550000
C          3.9917280000        0.0985170000       -2.0887150000
C          3.1150330000       -0.8658560000       -2.8911280000
C          2.1524130000        0.1002340000       -3.5695260000
C          1.7224660000        0.9581570000       -2.3557890000
H          2.5563130000       -1.5116990000       -2.2044520000
H          1.2967610000       -0.3858970000       -4.0397630000
H          2.6708610000        0.7020680000       -4.3246030000
H          0.9156200000        0.4272490000       -1.8444260000
H          2.6892170000        0.5459880000       -0.4123920000
H          4.5499080000        0.7063470000       -2.8102470000
S         -0.5762570000        2.8017990000       -1.5728230000
S          1.0274960000        2.5671830000       -2.8671910000
S          2.9453970000        3.1869180000        0.7850370000
S          3.7268290000        2.6190080000       -1.0260970000
S         -7.2588020000       -0.4459440000       -1.9046450000
S         -0.5994500000       -0.8149030000        0.1415380000
S         -5.7355250000       -2.8542580000       -0.4880690000
S          4.2084380000       -1.9512600000       -3.8549590000
S          5.0581260000       -2.6457560000       -2.0835260000
S          5.2570770000       -0.7686710000       -1.0887680000
C          0.4530940000       -1.7220320000        3.9899910000
C          0.0365610000       -0.7147190000        2.9101170000
C         -0.3599090000       -1.6543180000        1.7540420000
C          0.6714070000       -2.8009000000        1.7587360000
C          1.1554680000       -2.8836330000        3.2475970000
H         -0.4497320000       -2.1073970000        4.4764870000
H          0.2086500000       -3.7438280000        1.4645150000
H          1.0735930000       -1.2680480000        4.7655160000
H         -0.8146460000       -0.1061640000        3.2216260000
H         -1.3338470000       -2.0787280000        2.0180920000
H          0.8656650000       -3.8517710000        3.6580130000
S          1.3849540000        0.4781900000        2.4613480000
S          2.9843730000       -2.7354020000        3.4223030000
S          3.4046480000       -3.6333230000        1.6021060000
S          2.0393580000       -2.4714330000        0.5622360000
S         -7.7051720000       -2.0401790000       -0.6437930000
