62
conf-1-77.log	Energy: -4984617.4266688
C         -2.3630050000        4.1564510000       -1.8101310000
C         -3.2682560000        3.2977040000       -0.9097620000
C         -2.5936930000        3.5247460000        0.4493920000
C         -1.0982160000        3.3681320000        0.1452770000
C         -0.9262740000        3.9586460000       -1.2657960000
H         -2.6506720000        5.2056770000       -1.6862260000
H         -0.8590310000        2.3006090000        0.1401990000
H         -2.4586780000        3.9134690000       -2.8710170000
H         -4.3038770000        3.6418410000       -0.9091030000
H         -2.7922800000        4.5759140000        0.7053970000
H         -0.3906190000        4.9083160000       -1.2248270000
C          2.4933380000        2.0012660000       -0.7880770000
C          2.4920020000        2.7234050000        0.5686800000
C          3.9822670000        2.7509800000        0.9418880000
C          4.5760150000        1.4485010000        0.3438180000
C          3.4341120000        0.8269710000       -0.4777670000
H          4.1273510000        2.8274670000        2.0203320000
H          5.4266870000        1.6716690000       -0.3072340000
H          2.8734350000        0.1410670000        0.1647700000
H          2.9089910000        2.6514220000       -1.5665140000
H          1.9280450000        2.1273910000        1.2936760000
H          4.4681340000        3.6175540000        0.4804270000
S          1.7602410000        4.3990380000        0.5729870000
S         -0.0775860000        4.1371110000        1.4651320000
S          0.8876910000        1.3623720000       -1.3964030000
S          0.0589980000        2.9105940000       -2.4506090000
C         -3.5467230000       -1.6597550000        2.2559980000
C         -2.7854130000       -2.3003810000        1.0810050000
C         -3.3167960000       -1.5665560000       -0.2055660000
C         -4.3766160000       -0.5873150000        0.3294330000
C         -3.9351700000       -0.2584680000        1.7592240000
H         -2.9574660000       -1.6492060000        3.1751550000
H         -5.3147190000       -1.1502690000        0.4435200000
H         -4.7440440000        0.1844150000        2.3430510000
H         -4.4666400000       -2.2209920000        2.4507180000
H         -1.7094850000       -2.1295460000        1.1745140000
S         -3.1929940000        2.7285280000        1.9765580000
S         -2.4514020000        0.8060250000        1.9882380000
S         -3.2621250000        1.5957700000       -1.6111630000
S         -4.9452910000        0.7057680000       -0.8187050000
S          5.3332490000        0.3227550000        1.6128620000
S          3.8505310000       -0.9668060000        2.1634720000
S          3.8905420000       -0.1099910000       -1.9770940000
S         -3.9257360000       -2.7070550000       -1.4951960000
S         -4.6904760000       -4.0680390000       -0.1210970000
S         -2.9337170000       -4.1216890000        0.9918830000
C          3.3424590000       -3.4104820000       -1.1506870000
C          4.4341370000       -2.7099200000       -0.3267210000
C          3.8104090000       -2.4964210000        1.1031520000
C          2.3409820000       -2.9797540000        1.0226990000
C          2.3608610000       -4.0010240000       -0.1362950000
H          3.7600360000       -4.1681280000       -1.8157670000
H          2.0442000000       -3.4540800000        1.9595450000
H          2.8204820000       -2.6699520000       -1.7656380000
H          5.2755290000       -3.3952640000       -0.1780350000
H          4.3176440000       -3.2284980000        1.7371640000
H          2.7176430000       -4.9613770000        0.2522700000
S          5.3201450000       -1.4050460000       -1.2598520000
S          0.6761400000       -4.3426770000       -0.7475400000
S          0.2988560000       -2.3338550000       -1.0904870000
S          1.0363060000       -1.6776760000        0.7646410000
H         -2.4931130000       -1.0218960000       -0.6770070000
